# humanstxt.org/
# The humans responsible & technology colophon

# TEAM

    <name> -- <role> -- <twitter>

# THANKS


Adding a line.
New line.

    <name>

# TECHNOLOGY COLOPHON

    HTML5, CSS3
    jQuery, Modernizr
